Package: wrv
Title: Wood River Valley Groundwater-Flow Model
Version: 1.1.3.9000
Authors@R: person(given=c("Jason", "C."), family="Fisher", role=c("aut", "cre"), email="jfisher@usgs.gov")
Description: A processing program for the groundwater-flow model of the Wood
    River Valley aquifer system, south-central Idaho. Included in the package is
    MODFLOW-USG version 1.3, a U.S. Geological Survey groundwater-flow model.
Depends:
    R (>= 3.2.0)
Imports:
    dplyr,
    inlmisc,
    methods,
    sp,
    stats,
    raster
Suggests:
    animation,
    dataRetrieval,
    git2r,
    grDevices,
    knitr,
    leaflet,
    rgdal,
    rgeos,
    sfsmisc,
    viridisLite,
    xtable
SystemRequirements: PEST (>= 13.0, optional)
License: CC0
Copyright: This software is in the public domain because it contains materials
    that originally came from the United States Geological Survey (USGS), an
    agency of the United States Department of Interior. For more information,
    see the official USGS copyright policy at
    https://www2.usgs.gov/visual-id/credit_usgs.html
URL: https://github.com/USGS-R/wrv
BugReports: https://github.com/USGS-R/wrv/issues
Encoding: UTF-8
ByteCompile: true
LazyData: true
LazyDataCompression: xz
VignetteBuilder: knitr
RoxygenNote: 6.0.1
